Circuit: * C:\Users\marka\Fall-2022\Junior-Design\proj-555\Assignment-3\spice\test-1.asc

Direct Newton iteration for .op point succeeded.

Date: Wed Aug 31 19:45:11 2022
Total elapsed time: 0.093 seconds.

tnom = 27
temp = 27
method = modified trap
totiter = 5459
traniter = 5433
tranpoints = 1692
accept = 1538
rejected = 154
matrix size = 19
fillins = 2
solver = Normal
Matrix Compiler1: 794 bytes object code size  0.1/0.1/[0.1]
Matrix Compiler2: 1.26 KB object code size  0.1/0.1/[0.1]

