Circuit: * C:\Users\marka\Fall-2022\Junior-Design\555-timer-PWM-fan\Assignment-3\spice\test-1.asc

Direct Newton iteration for .op point succeeded.

Date: Sun Sep 04 18:56:41 2022
Total elapsed time: 0.131 seconds.

tnom = 27
temp = 27
method = modified trap
totiter = 5459
traniter = 5433
tranpoints = 1692
accept = 1538
rejected = 154
matrix size = 19
fillins = 2
solver = Normal
Matrix Compiler1: 794 bytes object code size  0.2/0.1/[0.1]
Matrix Compiler2: off  [0.1]/0.2/0.1

