Circuit: * C:\Users\marka\Fall-2022\Junior-Design\555-timer-PWM-fan\Assignment-3\spice\test-1.asc

Direct Newton iteration for .op point succeeded.

Date: Wed Sep 14 11:10:11 2022
Total elapsed time: 0.180 seconds.

tnom = 27
temp = 27
method = modified trap
totiter = 5879
traniter = 5853
tranpoints = 1773
accept = 1594
rejected = 179
matrix size = 19
fillins = 2
solver = Normal
Matrix Compiler1: 776 bytes object code size  0.2/0.1/[0.1]
Matrix Compiler2: 1.23 KB object code size  0.1/0.2/[0.1]

